Circuit: * C:\Users\maxwe\Documents\HWE_FUC\LTSPICE\Maximilian_Wein.asc

.OP point found by inspection.

Date: Sun Nov 05 18:45:30 2023
Total elapsed time: 0.067 seconds.

tnom = 27
temp = 27
method = modified trap
totiter = 2324
traniter = 2324
tranpoints = 1163
accept = 1160
rejected = 3
matrix size = 3
fillins = 0
solver = Normal
Matrix Compiler1:       3 opcodes  0.0/[0.0]/0.0
Matrix Compiler2: 175 bytes object code size  0.0/0.0/[0.0]

